*Heading
** Job name: FGM-plate Model name: Model-1
** Generated by: Abaqus/CAE 2021
*Preprint, echo=NO, model=NO, history=NO, contact=NO
**
** PARTS
**
*Part, name=Part-1
*Node
      1,          50.,           0.,         100.
      2,          40.,           0.,         100.
      3,          30.,           0.,         100.
      4,          20.,           0.,         100.
      5,          10.,           0.,         100.
      6,           0.,           0.,         100.
      7,         -10.,           0.,         100.
      8,         -20.,           0.,         100.
      9,         -30.,           0.,         100.
     10,         -40.,           0.,         100.
     11,         -50.,           0.,         100.
     12,          50.,           0.,          90.
     13,          40.,           0.,          90.
     14,          30.,           0.,          90.
     15,          20.,           0.,          90.
     16,          10.,           0.,          90.
     17,           0.,           0.,          90.
     18,         -10.,           0.,          90.
     19,         -20.,           0.,          90.
     20,         -30.,           0.,          90.
** ... 101 like lines cut
*Element, type=S4R
  1,   1,   2,  13,  12
  2,   2,   3,  14,  13
  3,   3,   4,  15,  14
  4,   4,   5,  16,  15
  5,   5,   6,  17,  16
  6,   6,   7,  18,  17
  7,   7,   8,  19,  18
  8,   8,   9,  20,  19
  9,   9,  10,  21,  20
 10,  10,  11,  22,  21
 11,  12,  13,  24,  23
 12,  13,  14,  25,  24
 13,  14,  15,  26,  25
 14,  15,  16,  27,  26
 15,  16,  17,  28,  27
 16,  17,  18,  29,  28
 17,  18,  19,  30,  29
 18,  19,  20,  31,  30
 19,  20,  21,  32,  31
 20,  21,  22,  33,  32
** ... 80 like lines cut
*Nset, nset=Set-1, generate
   1,  121,    1
*Elset, elset=Set-1, generate
   1,  100,    1
** Section: Section-1
*Shell Section, elset=Set-1, material=FGM
1., 5
*End Part
**  
**
** ASSEMBLY
**
*Assembly, name=Assembly
**  
*Instance, name=Part-1-1, part=Part-1
*End Instance
**  
*Nset, nset=Set-1, instance=Part-1-1, generate
  11,  121,   11
*Elset, elset=Set-1, instance=Part-1-1, generate
  10,  100,   10
*Elset, elset=_Surf-1_SNEG, internal, instance=Part-1-1, generate
   1,  100,    1
*Surface, type=ELEMENT, name=Surf-1
_Surf-1_SNEG, SNEG
*End Assembly
** 
** MATERIALS
** 
*Material, name=FGM
*Depvar
      1,
*Elastic, dependencies=1
 208000., 0.3, ,  0.
 188206., 0.3, , 10.
 170296., 0.3, , 20.
 154090., 0.3, , 30.
 139427., 0.3, , 40.
 126158., 0.3, , 50.
 114153., 0.3, , 60.
 103290., 0.3, , 70.
 93460.4, 0.3, , 80.
 84566.5, 0.3, , 90.
 76518.9, 0.3, ,100.
*User Defined Field
** ----------------------------------------------------------------
** 
** STEP: Step-1
** 
*Step, name=Step-1, nlgeom=NO
*Static
1., 1., 1e-05, 1.
** 
** BOUNDARY CONDITIONS
** 
** Name: BC-1 Type: Displacement/Rotation
*Boundary
Set-1, 1, 1
Set-1, 2, 2
Set-1, 3, 3
Set-1, 4, 4
Set-1, 5, 5
Set-1, 6, 6
** 
** LOADS
** 
** Name: Load-1   Type: Pressure
*Dsload
Surf-1, P, 10.
** 
** OUTPUT REQUESTS
** 
*Restart, write, frequency=0
** 
** FIELD OUTPUT: F-Output-1
** 
*Output, field
*Node Output
CF, RF, U
*Element Output, directions=YES
FV, LE, PE, PEEQ, PEMAG, S, SDV
*Contact Output
CDISP, CSTRESS
** 
** HISTORY OUTPUT: H-Output-1
** 
*Output, history, variable=PRESELECT
*End Step
