*Heading
** Job name: FGM-sphere Model name: Model-3
** Generated by: Abaqus/CAE 2021
*Preprint, echo=NO, model=NO, history=NO, contact=NO
**
** PARTS
**
*Part, name=Part-1
*Node
      1,           0.,           0.,         100.
      2,           0.,         100.,           0.
      3,        -100.,           0.,           0.
      4,           0.,           0.,           0.
      5,         100.,           0.,           0.
      6,           0.,        -100.,           0.
      7,  -42.2618256,           0.,  -90.6307755
      8,  -98.0785294,           0.,   19.5090313
      9,  -92.3879547,           0.,   38.2683449
     10,   -83.146965,           0.,   55.5570221
     11,  -70.7106781,           0.,   70.7106781
     12,  -55.5570221,           0.,    83.146965
     13,  -38.2683449,           0.,   92.3879547
     14,  -19.5090313,           0.,   98.0785294
     15,           0.,   19.5090313,   98.0785294
     16,           0.,   38.2683449,   92.3879547
     17,           0.,   55.5570221,    83.146965
     18,           0.,   70.7106781,   70.7106781
     19,           0.,    83.146965,   55.5570221
     20,           0.,   92.3879547,   38.2683449
** ... 808 like lines cut
*Element, type=C3D8R
  1, 158, 159, 487, 481,  11,  12, 106, 105
  2, 159, 160, 488, 487,  12,  13, 107, 106
  3, 160, 161, 489, 488,  13,  14, 108, 107
  4, 161,  22, 142, 489,  14,   1,  15, 108
  5, 481, 487, 490, 482, 105, 106, 110, 109
  6, 487, 488, 491, 490, 106, 107, 111, 110
  7, 488, 489, 492, 491, 107, 108, 112, 111
  8, 489, 142, 143, 492, 108,  15,  16, 112
  9, 482, 490, 493, 483, 109, 110, 114, 113
 10, 490, 491, 494, 493, 110, 111, 115, 114
 11, 491, 492, 495, 494, 111, 112, 116, 115
 12, 492, 143, 144, 495, 112,  16,  17, 116
 13, 483, 493, 478, 477, 113, 114, 118, 117
 14, 493, 494, 479, 478, 114, 115, 119, 118
 15, 494, 495, 480, 479, 115, 116, 120, 119
 16, 495, 144, 145, 480, 116,  17,  18, 120
 17, 145, 146, 496, 480,  18,  19, 121, 120
 18, 146, 147, 497, 496,  19,  20, 122, 121
 19, 147, 148, 498, 497,  20,  21, 123, 122
 20, 148,  36, 174, 498,  21,   2,  26, 123
** ... 604 like lines cut
*Nset, nset=Set-1, generate
   1,  828,    1
*Elset, elset=Set-1, generate
   1,  624,    1
** Section: Section-1
*Solid Section, elset=Set-1, material=Material-1
,
*End Part
**  
**
** ASSEMBLY
**
*Assembly, name=Assembly
**  
*Instance, name=Part-1-1, part=Part-1
*End Instance
**  
*Nset, nset=Set-1, instance=Part-1-1
 1, 3
*Elset, elset=_Surf-1_S3, internal, instance=Part-1-1
 113, 114, 115, 116, 117, 118, 119, 120, 121, 122, 123, 124, 125, 126, 127, 128
 209, 210, 211, 212, 213, 214, 215, 216, 217, 218, 219, 220, 221, 222, 223, 224
 225, 226, 227, 228, 229, 230, 231, 232, 233, 234, 235, 236, 237, 238, 239, 240
 321, 322, 323, 324, 325, 326, 327, 328, 329, 330, 331, 332, 333, 334, 335, 336
 505, 506, 507, 508, 509, 510, 511, 512, 513, 514, 515, 516, 517, 518, 519, 520
*Elset, elset=_Surf-1_S4, internal, instance=Part-1-1
 193, 194, 195, 196, 197, 198, 199, 200, 201, 202, 203, 204, 205, 206, 207, 208
 305, 306, 307, 308, 309, 310, 311, 312, 313, 314, 315, 316, 317, 318, 319, 320
 489, 490, 491, 492, 493, 494, 495, 496, 497, 498, 499, 500, 501, 502, 503, 504
 521, 522, 523, 524, 525, 526, 527, 528, 529, 530, 531, 532, 533, 534, 535, 536
*Elset, elset=_Surf-1_S2, internal, instance=Part-1-1
   1,   2,   3,   4,   5,   6,   7,   8,   9,  10,  11,  12,  13,  14,  15,  16
  17,  18,  19,  20,  21,  22,  23,  24,  25,  26,  27,  28,  29,  30,  31,  32
  33,  34,  35,  36,  37,  38,  39,  40,  41,  42,  43,  44,  45,  46,  47,  48
 337, 338, 339, 340, 341, 342, 343, 344, 345, 346, 347, 348, 349, 350, 351, 352
 353, 354, 355, 356, 357, 358, 359, 360, 361, 362, 363, 364, 365, 366, 367, 368
 369, 370, 371, 372, 373, 374, 375, 376, 537, 538, 539, 540, 541, 542, 543, 544
 545, 546, 547, 548, 549, 550, 551, 552, 553, 554, 555, 556, 557, 558, 559, 560
 561, 562, 563, 564, 565, 566, 567, 568, 569, 570, 571, 572, 573, 574, 575, 576
*Surface, type=ELEMENT, name=Surf-1
_Surf-1_S3, S3
_Surf-1_S4, S4
_Surf-1_S2, S2
*End Assembly
** 
** MATERIALS
** 
*Material, name=Material-1
*Depvar
      1,
*Elastic, dependencies=1
 70000., 0.3, ,  0.
210000., 0.3, ,100.
*User Defined Field
** ----------------------------------------------------------------
** 
** STEP: Step-1
** 
*Step, name=Step-1, nlgeom=NO
*Static
1., 1., 1e-05, 1.
** 
** BOUNDARY CONDITIONS
** 
** Name: BC-1 Type: Displacement/Rotation
*Boundary
Set-1, 1, 1
Set-1, 2, 2
Set-1, 3, 3
** 
** LOADS
** 
** Name: Load-1   Type: Pressure
*Dsload
Surf-1, P, 1.
** 
** OUTPUT REQUESTS
** 
*Restart, write, frequency=0
** 
** FIELD OUTPUT: F-Output-1
** 
*Output, field
*Node Output
CF, RF, U
*Element Output, directions=YES
FV, LE, PE, PEEQ, PEMAG, S, SDV
*Contact Output
CDISP, CSTRESS
** 
** HISTORY OUTPUT: H-Output-1
** 
*Output, history, variable=PRESELECT
*End Step
