*Heading
** Job name: FGM-tube Model name: Model-2
** Generated by: Abaqus/CAE 2021
*Preprint, echo=NO, model=NO, history=NO, contact=NO
**
** PARTS
**
*Part, name=Part-1
*Node
      1,           0.,        -100.,         125.
      2,           0.,        -100.,           0.
      3,           0.,         -80.,           0.
      4,           0.,         -80.,         125.
      5,        -100.,           0.,           0.
      6,         -80.,           0.,           0.
      7,         -80.,           0.,         125.
      8,        -100.,           0.,         125.
      9,         100.,           0.,         125.
     10,         100.,           0.,           0.
     11,          80.,           0.,           0.
     12,          80.,           0.,         125.
     13,           0.,         -80.,         250.
     14,         -80.,           0.,         250.
     15,        -100.,           0.,         250.
     16,           0.,        -100.,         250.
     17,           0.,          80.,         125.
     18,           0.,         100.,         125.
     19,           0.,         100.,         250.
     20,           0.,          80.,         250.
** ... 4540 like lines cut
*Element, type=C3D8R
  1,   90,  553, 2257,  481,    1,   25,  417,   48
  2,  553,  554, 2258, 2257,   25,   26,  418,  417
  3,  554,  555, 2259, 2258,   26,   27,  419,  418
  4,  555,  556, 2260, 2259,   27,   28,  420,  419
  5,  556,  557, 2261, 2260,   28,   29,  421,  420
  6,  557,  558, 2262, 2261,   29,   30,  422,  421
  7,  558,  559, 2263, 2262,   30,   31,  423,  422
  8,  559,  560, 2264, 2263,   31,   32,  424,  423
  9,  560,  100,  517, 2264,   32,    2,   33,  424
 10,  481, 2257, 2265,  482,   48,  417,  425,   47
 11, 2257, 2258, 2266, 2265,  417,  418,  426,  425
 12, 2258, 2259, 2267, 2266,  418,  419,  427,  426
 13, 2259, 2260, 2268, 2267,  419,  420,  428,  427
 14, 2260, 2261, 2269, 2268,  420,  421,  429,  428
 15, 2261, 2262, 2270, 2269,  421,  422,  430,  429
 16, 2262, 2263, 2271, 2270,  422,  423,  431,  430
 17, 2263, 2264, 2272, 2271,  423,  424,  432,  431
 18, 2264,  517,  518, 2272,  424,   33,   34,  432
 19,  482, 2265, 2273,  483,   47,  425,  433,   46
 20, 2265, 2266, 2274, 2273,  425,  426,  434,  433
** ... 3580 like lines cut
*Nset, nset=Set-1, generate
    1,  4560,     1
*Elset, elset=Set-1, generate
    1,  3600,     1
** Section: Section-1
*Solid Section, elset=Set-1, material=FGM-tube
,
*End Part
**  
**
** ASSEMBLY
**
*Assembly, name=Assembly
**  
*Instance, name=Part-1-1, part=Part-1
*End Instance
**  
*Nset, nset=Set-1, instance=Part-1-1
    2,    3,    5,    6,   10,   11,   23,   24,   33,   34,   35,   36,   57,   58,   59,   60
   91,   92,   93,   94,   95,   96,   97,   98,   99,  100,  101,  102,  103,  104,  105,  106
  107,  108,  117,  118,  119,  120,  151,  152,  153,  154,  155,  156,  157,  158,  159,  160
  161,  162,  163,  164,  165,  166,  167,  168,  343,  344,  345,  346,  347,  348,  349,  350
  351,  352,  353,  354,  355,  356,  357,  358,  359,  360,  361,  362,  363,  364,  381,  382
  383,  384,  385,  386,  387,  388,  389,  390,  391,  392,  393,  394,  395,  396,  397,  398
  517,  518,  519,  520,  521,  522,  523,  524,  525,  526,  527,  528,  529,  530,  531,  532
  533,  534,  535,  536,  537,  538,  539,  540,  541,  542,  543,  544,  545,  546,  547,  548
  549,  550,  551,  552,  765,  766,  767,  768,  769,  770,  771,  772,  773,  774,  775,  776
  777,  778,  779,  780,  781,  782,  783,  784,  785,  786,  787,  788,  789,  790,  791,  792
  793,  794,  795,  796,  797,  798,  799,  800, 1685, 1686, 1687, 1688, 1689, 1690, 1691, 1692
 1693, 1694, 1695, 1696, 1697, 1698, 1699, 1700, 1701, 1702, 1703, 1704, 1705, 1706, 1707, 1708
 1709, 1710, 1711, 1712, 1713, 1714, 1715, 1716, 1717, 1718, 1719, 1720, 1897, 1898, 1899, 1900
 1901, 1902, 1903, 1904, 1905, 1906, 1907, 1908, 1909, 1910, 1911, 1912, 1913, 1914, 1915, 1916
 1917, 1918, 1919, 1920, 1921, 1922, 1923, 1924, 1925, 1926, 1927, 1928, 1929, 1930, 1931, 1932
*Elset, elset=Set-1, instance=Part-1-1
    9,   18,   27,   36,   45,   54,   63,   72,   81,   90,   99,  108,  117,  126,  135,  144
  153,  162,  171,  180,  189,  198,  207,  216,  225,  234,  243,  252,  261,  270,  279,  288
  297,  306,  315,  324,  333,  342,  351,  360,  369,  378,  387,  396,  405,  414,  423,  432
  441,  450,  459,  468,  477,  486,  495,  504,  513,  522,  531,  540,  549,  558,  567,  576
  585,  594,  603,  612,  621,  630,  639,  648,  657,  666,  675,  684,  693,  702,  711,  720
  729,  738,  747,  756,  765,  774,  783,  792,  801,  810,  819,  828,  837,  846,  855,  864
  873,  882,  891,  900, 2651, 2652, 2653, 2654, 2655, 2656, 2657, 2658, 2659, 2660, 2661, 2662
 2663, 2664, 2665, 2666, 2667, 2668, 2669, 2670, 2671, 2672, 2673, 2674, 2675, 2676, 2677, 2678
 2679, 2680, 2681, 2682, 2683, 2684, 2685, 2686, 2687, 2688, 2689, 2690, 2691, 2692, 2693, 2694
 2695, 2696, 2697, 2698, 2699, 2700, 3101, 3102, 3103, 3104, 3105, 3106, 3107, 3108, 3109, 3110
 3111, 3112, 3113, 3114, 3115, 3116, 3117, 3118, 3119, 3120, 3121, 3122, 3123, 3124, 3125, 3126
 3127, 3128, 3129, 3130, 3131, 3132, 3133, 3134, 3135, 3136, 3137, 3138, 3139, 3140, 3141, 3142
 3143, 3144, 3145, 3146, 3147, 3148, 3149, 3150
*Elset, elset=_Surf-1_S6, internal, instance=Part-1-1, generate
 1351,  2696,     5
*Elset, elset=_Surf-1_S2, internal, instance=Part-1-1
  901,  902,  903,  904,  905,  906,  907,  908,  909,  910,  911,  912,  913,  914,  915,  916
  917,  918,  919,  920,  921,  922,  923,  924,  925,  926,  927,  928,  929,  930,  931,  932
  933,  934,  935,  936,  937,  938,  939,  940,  941,  942,  943,  944,  945,  946,  947,  948
  949,  950,  951,  952,  953,  954,  955,  956,  957,  958,  959,  960,  961,  962,  963,  964
  965,  966,  967,  968,  969,  970,  971,  972,  973,  974,  975,  976,  977,  978,  979,  980
  981,  982,  983,  984,  985,  986,  987,  988,  989,  990, 3151, 3152, 3153, 3154, 3155, 3156
 3157, 3158, 3159, 3160, 3161, 3162, 3163, 3164, 3165, 3166, 3167, 3168, 3169, 3170, 3171, 3172
 3173, 3174, 3175, 3176, 3177, 3178, 3179, 3180, 3181, 3182, 3183, 3184, 3185, 3186, 3187, 3188
 3189, 3190, 3191, 3192, 3193, 3194, 3195, 3196, 3197, 3198, 3199, 3200, 3201, 3202, 3203, 3204
 3205, 3206, 3207, 3208, 3209, 3210, 3211, 3212, 3213, 3214, 3215, 3216, 3217, 3218, 3219, 3220
 3221, 3222, 3223, 3224, 3225, 3226, 3227, 3228, 3229, 3230, 3231, 3232, 3233, 3234, 3235, 3236
 3237, 3238, 3239, 3240
*Elset, elset=_Surf-1_S5, internal, instance=Part-1-1
  37,  38,  39,  40,  41,  42,  43,  44,  45,  82,  83,  84,  85,  86,  87,  88
  89,  90, 127, 128, 129, 130, 131, 132, 133, 134, 135, 172, 173, 174, 175, 176
 177, 178, 179, 180, 217, 218, 219, 220, 221, 222, 223, 224, 225, 262, 263, 264
 265, 266, 267, 268, 269, 270, 307, 308, 309, 310, 311, 312, 313, 314, 315, 352
 353, 354, 355, 356, 357, 358, 359, 360, 397, 398, 399, 400, 401, 402, 403, 404
 405, 442, 443, 444, 445, 446, 447, 448, 449, 450, 487, 488, 489, 490, 491, 492
 493, 494, 495, 532, 533, 534, 535, 536, 537, 538, 539, 540, 577, 578, 579, 580
 581, 582, 583, 584, 585, 622, 623, 624, 625, 626, 627, 628, 629, 630, 667, 668
 669, 670, 671, 672, 673, 674, 675, 712, 713, 714, 715, 716, 717, 718, 719, 720
 757, 758, 759, 760, 761, 762, 763, 764, 765, 802, 803, 804, 805, 806, 807, 808
 809, 810, 847, 848, 849, 850, 851, 852, 853, 854, 855, 892, 893, 894, 895, 896
 897, 898, 899, 900
*Elset, elset=_Surf-1_S4, internal, instance=Part-1-1, generate
 2705,  3150,     5
*Surface, type=ELEMENT, name=Surf-1
_Surf-1_S6, S6
_Surf-1_S2, S2
_Surf-1_S4, S4
_Surf-1_S5, S5
*End Assembly
** 
** MATERIALS
** 
*Material, name=FGM-tube
*Depvar
      1,
*Elastic, dependencies=1
 50000., 0.3, , 80.
100000., 0.3, , 85.
125000., 0.3, , 90.
100000., 0.3, , 95.
 50000., 0.3, ,100.
*User Defined Field
** ----------------------------------------------------------------
** 
** STEP: Step-1
** 
*Step, name=Step-1, nlgeom=NO
*Static
1., 1., 1e-05, 1.
** 
** BOUNDARY CONDITIONS
** 
** Name: BC-1 Type: Displacement/Rotation
*Boundary
Set-1, 1, 1
Set-1, 2, 2
Set-1, 3, 3
** 
** LOADS
** 
** Name: Load-1   Type: Pressure
*Dsload
Surf-1, P, 10.
** 
** OUTPUT REQUESTS
** 
*Restart, write, frequency=0
** 
** FIELD OUTPUT: F-Output-1
** 
*Output, field
*Node Output
CF, RF, U
*Element Output, directions=YES
FV, LE, PE, PEEQ, PEMAG, S, SDV
*Contact Output
CDISP, CSTRESS
** 
** HISTORY OUTPUT: H-Output-1
** 
*Output, history, variable=PRESELECT
*End Step
